####################################################################### 
# 
# This file contains crystal structure data downloaded from the 
# Cambridge Structural Database (CSD) hosted by the Cambridge 
# Crystallographic Data Centre (CCDC).
# 
# Full information about CCDC data access policies and citation 
# guidelines are available at http://www.ccdc.cam.ac.uk/access/V1 
# 
# Audit and citation data items may have been added by the CCDC. 
# Please retain this information to preserve the provenance of 
# this file and to allow appropriate attribution of the data. 
# 
#######################################################################
@<TRIPOS>MOLECULE

    32    33     1     0     0
SMALL
NO_CHARGES
****
Generated from the CSD

@<TRIPOS>ATOM
     1 O1       0.8729  12.8748   7.5172   O.2       1 RES1   0.0000
     2 O2       3.6978  13.5639   3.1842   O.3       1 RES1   0.0000
     3 O3       3.8253  11.2452   2.1254   O.3       1 RES1   0.0000
     4 C1       1.8263  11.6429   5.7122   C.2       1 RES1   0.0000
     5 C2       2.4165  12.7391   5.0766   C.2       1 RES1   0.0000
     6 C3       3.0953  12.5698   3.9004   C.2       1 RES1   0.0000
     7 C4       3.1861  11.2833   3.3230   C.2       1 RES1   0.0000
     8 C5       2.6274  10.1999   3.9681   C.2       1 RES1   0.0000
     9 C6       1.9419  10.3878   5.1606   C.2       1 RES1   0.0000
    10 C7       1.0371  11.8250   6.9339   C.2       1 RES1   0.0000
    11 C8       3.7323  14.8596   3.7625   C.3       1 RES1   0.0000
    12 C9       3.9709   9.9551   1.4983   C.3       1 RES1   0.0000
    13 C10      4.5655  10.1860   0.1396   C.2       1 RES1   0.0000
    14 C11      5.8921   9.9006  -0.1079   C.2       1 RES1   0.0000
    15 C12      6.4395  10.1291  -1.3587   C.2       1 RES1   0.0000
    16 C13      5.6579  10.6372  -2.3610   C.2       1 RES1   0.0000
    17 C14      4.3334  10.9144  -2.1254   C.2       1 RES1   0.0000
    18 C15      3.7958  10.6824  -0.8789   C.2       1 RES1   0.0000
    19 H1       0.6046  10.9620   7.2988   H         1 RES1   0.0000
    20 H2       2.3450  13.6323   5.4750   H         1 RES1   0.0000
    21 H3       2.7146   9.3009   3.5869   H         1 RES1   0.0000
    22 H4       1.5347   9.6199   5.6137   H         1 RES1   0.0000
    23 H5       4.1443  14.8109   4.6500   H         1 RES1   0.0000
    24 H6       2.8182  15.2041   3.8447   H         1 RES1   0.0000
    25 H7       4.2567  15.4582   3.1902   H         1 RES1   0.0000
    26 H8       4.5643   9.3867   2.0329   H         1 RES1   0.0000
    27 H9       3.0948   9.5236   1.4126   H         1 RES1   0.0000
    28 H10      6.4509   9.5329   0.6074   H         1 RES1   0.0000
    29 H11      7.3836   9.9273  -1.5257   H         1 RES1   0.0000
    30 H12      6.0440  10.8042  -3.2468   H         1 RES1   0.0000
    31 H13      3.7718  11.2764  -2.8424   H         1 RES1   0.0000
    32 H14      2.8481  10.8750  -0.7187   H         1 RES1   0.0000
@<TRIPOS>BOND
     1     1    10    2
     2     2     6    1
     3     3     7    1
     4     4     5    1
     5     5     6    2
     6     6     7    1
     7     7     8    2
     8     8     9    1
     9     9     4    2
    10    10     4    1
    11    11     2    1
    12    12     3    1
    13    13    12    1
    14    14    13    2
    15    15    14    1
    16    16    15    2
    17    17    16    1
    18    18    13    1
    19    19    10    1
    20    20     5    1
    21    21     8    1
    22    22     9    1
    23    23    11    1
    24    24    11    1
    25    25    11    1
    26    26    12    1
    27    27    12    1
    28    28    14    1
    29    29    15    1
    30    30    16    1
    31    31    17    1
    32    32    18    1
    33    17    18    2
@<TRIPOS>SUBSTRUCTURE
     1 RES1        1 GROUP             0 ****  ****    0  
@<TRIPOS>CRYSIN
   13.0350   11.6000    8.6680   90.0000   81.2300   90.0000    14     1
