####################################################################### 
# 
# This file contains crystal structure data downloaded from the 
# Cambridge Structural Database (CSD) hosted by the Cambridge 
# Crystallographic Data Centre (CCDC).
# 
# Full information about CCDC data access policies and citation 
# guidelines are available at http://www.ccdc.cam.ac.uk/access/V1 
# 
# Audit and citation data items may have been added by the CCDC. 
# Please retain this information to preserve the provenance of 
# this file and to allow appropriate attribution of the data. 
# 
#######################################################################
@<TRIPOS>MOLECULE

    43    45     1     0     0
SMALL
NO_CHARGES
****
Generated from the CSD

@<TRIPOS>ATOM
     1 O1       1.6398  -0.3833  14.4102   O.3       1 RES1   0.0000
     2 O2       3.0470  -0.8125  17.7277   O.3       1 RES1   0.0000
     3 O3       1.9362   1.6813  17.8984   O.2       1 RES1   0.0000
     4 O4       0.6511   3.6459  16.8088   O.3       1 RES1   0.0000
     5 H1       1.0459   3.2274  17.3920   H         1 RES1   0.0000
     6 O5      -0.7009   3.0766  12.2794   O.3       1 RES1   0.0000
     7 H2      -0.9900   3.8318  12.4115   H         1 RES1   0.0000
     8 O6       3.8841  -6.1662  14.0546   O.3       1 RES1   0.0000
     9 C1       2.2763  -0.9541  15.4852   C.2       1 RES1   0.0000
    10 C2       2.3724  -0.2792  16.6496   C.2       1 RES1   0.0000
    11 C3       1.8219   1.0499  16.8148   C.2       1 RES1   0.0000
    12 C4       0.5777   2.8976  15.6923   C.2       1 RES1   0.0000
    13 C5      -0.0470   3.4120  14.5711   C.2       1 RES1   0.0000
    14 C6      -0.1091   2.6056  13.4273   C.2       1 RES1   0.0000
    15 C7       0.4455   1.3159  13.3441   C.2       1 RES1   0.0000
    16 C8       1.0767   0.8705  14.4915   C.2       1 RES1   0.0000
    17 C9       1.1586   1.6016  15.6720   C.2       1 RES1   0.0000
    18 C10      2.7490  -2.3065  15.1418   C.2       1 RES1   0.0000
    19 C11      3.4848  -3.1037  16.0290   C.2       1 RES1   0.0000
    20 H3       3.7106  -2.7592  16.8620   H         1 RES1   0.0000
    21 C12      3.8854  -4.3859  15.7017   C.2       1 RES1   0.0000
    22 H4       4.3739  -4.8930  16.3081   H         1 RES1   0.0000
    23 C13      3.5550  -4.9069  14.4694   C.2       1 RES1   0.0000
    24 C14      2.8475  -4.1349  13.5688   C.2       1 RES1   0.0000
    25 H5       2.6343  -4.4831  12.7328   H         1 RES1   0.0000
    26 C15      2.4543  -2.8561  13.8910   C.2       1 RES1   0.0000
    27 H6       1.9852  -2.3493  13.2676   H         1 RES1   0.0000
    28 C16     -0.6247   4.7973  14.5934   C.3       1 RES1   0.0000
    29 H7      -0.5826   5.1474  15.4856   H         1 RES1   0.0000
    30 H8      -1.5397   4.7666  14.3059   H         1 RES1   0.0000
    31 H9      -0.1216   5.3629  14.0037   H         1 RES1   0.0000
    32 C17      0.3369   0.4747  12.1051   C.3       1 RES1   0.0000
    33 H10      1.2154   0.2965  11.7617   H         1 RES1   0.0000
    34 H11     -0.1768   0.9446  11.4428   H         1 RES1   0.0000
    35 H12     -0.0969  -0.3548  12.3180   H         1 RES1   0.0000
    36 C18      2.1721  -1.3156  18.7518   C.3       1 RES1   0.0000
    37 H13      1.5271  -0.6432  18.9818   H         1 RES1   0.0000
    38 H14      2.6874  -1.5441  19.5285   H         1 RES1   0.0000
    39 H15      1.7177  -2.0982  18.4279   H         1 RES1   0.0000
    40 C19      4.5401  -7.0171  14.9785   C.3       1 RES1   0.0000
    41 H16      5.4121  -6.6655  15.1739   H         1 RES1   0.0000
    42 H17      4.6256  -7.8952  14.6008   H         1 RES1   0.0000
    43 H18      4.0268  -7.0673  15.7878   H         1 RES1   0.0000
@<TRIPOS>BOND
     1     1     9    1
     2     2    10    1
     3     3    11    2
     4     4     5    1
     5     6     7    1
     6     8    23    1
     7     9    10    2
     8    10    11    1
     9    11    17    1
    10    12     4    1
    11    13    12    2
    12    14     6    1
    13    15    14    2
    14    16     1    1
    15    17    12    1
    16    18     9    1
    17    19    18    2
    18    20    19    1
    19    21    19    1
    20    22    21    1
    21    23    21    2
    22    24    23    1
    23    25    24    1
    24    26    18    1
    25    27    26    1
    26    28    13    1
    27    29    28    1
    28    30    28    1
    29    31    28    1
    30    32    15    1
    31    33    32    1
    32    34    32    1
    33    35    32    1
    34    36     2    1
    35    37    36    1
    36    38    36    1
    37    39    36    1
    38    40     8    1
    39    41    40    1
    40    42    40    1
    41    43    40    1
    42    13    14    1
    43    15    16    1
    44    16    17    2
    45    24    26    2
@<TRIPOS>SUBSTRUCTURE
     1 RES1        1 GROUP             0 ****  ****    0  
@<TRIPOS>CRYSIN
    4.0540   16.2020   23.9790   90.0000   90.0000   90.0000    19     1
