####################################################################### 
# 
# This file contains crystal structure data downloaded from the 
# Cambridge Structural Database (CSD) hosted by the Cambridge 
# Crystallographic Data Centre (CCDC).
# 
# Full information about CCDC data access policies and citation 
# guidelines are available at http://www.ccdc.cam.ac.uk/access/V1 
# 
# Audit and citation data items may have been added by the CCDC. 
# Please retain this information to preserve the provenance of 
# this file and to allow appropriate attribution of the data. 
# 
#######################################################################
@<TRIPOS>MOLECULE

    45    46     1     0     0
SMALL
NO_CHARGES
****
Generated from the CSD

@<TRIPOS>ATOM
     1 O1      11.9466   4.7177   0.6495   O.3       1 RES1   0.0000
     2 O2       9.4349   4.4539   1.5100   O.3       1 RES1   0.0000
     3 O3      10.8963   5.9173   8.8626   O.3       1 RES1   0.0000
     4 O4       9.6805   6.1684  10.9718   O.2       1 RES1   0.0000
     5 O5       3.3342   7.9437  14.0709   O.3       1 RES1   0.0000
     6 O6       1.5018   5.9696  13.9528   O.3       1 RES1   0.0000
     7 C1      10.3569   4.7396   2.4747   C.2       1 RES1   0.0000
     8 C2      10.1065   4.9002   3.8189   C.2       1 RES1   0.0000
     9 C3      11.1650   5.1682   4.7108   C.2       1 RES1   0.0000
    10 C4      12.4665   5.2708   4.2046   C.2       1 RES1   0.0000
    11 C5      12.7180   5.1258   2.8478   C.2       1 RES1   0.0000
    12 C6      11.6793   4.8563   1.9811   C.2       1 RES1   0.0000
    13 C7      10.9612   5.3536   6.1416   C.2       1 RES1   0.0000
    14 C8       9.7970   5.4116   6.8200   C.2       1 RES1   0.0000
    15 C9       9.7638   5.6683   8.2471   C.2       1 RES1   0.0000
    16 C10      8.5619   5.6683   8.9681   C.2       1 RES1   0.0000
    17 C11      8.5540   5.9406  10.3336   C.2       1 RES1   0.0000
    18 C12      7.3553   6.0382  11.1565   C.2       1 RES1   0.0000
    19 C13      6.1560   5.5417  10.8047   C.2       1 RES1   0.0000
    20 C14      4.9296   5.6952  11.6012   C.2       1 RES1   0.0000
    21 C15      4.7809   6.7660  12.4868   C.2       1 RES1   0.0000
    22 C16      3.6252   6.8926  13.2531   C.2       1 RES1   0.0000
    23 C17      2.6323   5.9024  13.1777   C.2       1 RES1   0.0000
    24 C18      2.7640   4.8514  12.3021   C.2       1 RES1   0.0000
    25 C19      3.9089   4.7509  11.4994   C.2       1 RES1   0.0000
    26 C20      8.0522   4.4765   1.9120   C.3       1 RES1   0.0000
    27 C21      4.2486   9.0450  14.0809   C.3       1 RES1   0.0000
    28 H1       9.2151   4.8450   4.1455   H         1 RES1   0.0000
    29 H2      13.1799   5.4886   4.8490   H         1 RES1   0.0000
    30 H3      13.5854   5.1916   2.4747   H         1 RES1   0.0000
    31 H4       8.9238   5.2765   6.3565   H         1 RES1   0.0000
    32 H5       7.7958   5.5169   8.5171   H         1 RES1   0.0000
    33 H6       7.5172   6.5355  11.9717   H         1 RES1   0.0000
    34 H7       6.0854   5.0006   9.9995   H         1 RES1   0.0000
    35 H8       5.4222   7.4691  12.5747   H         1 RES1   0.0000
    36 H9       2.0879   4.1872  12.2230   H         1 RES1   0.0000
    37 H10      3.9709   4.0033  10.8286   H         1 RES1   0.0000
    38 H11      7.5773   4.3145   1.0803   H         1 RES1   0.0000
    39 H12      7.7546   5.4038   2.2738   H         1 RES1   0.0000
    40 H13      7.8888   3.7911   2.5752   H         1 RES1   0.0000
    41 H14      3.8487   9.7961  14.5595   H         1 RES1   0.0000
    42 H15      4.4142   9.3364  13.1149   H         1 RES1   0.0000
    43 H16      5.0428   8.7422  14.6475   H         1 RES1   0.0000
    44 H17     11.3764   4.9016   0.2261   H         1 RES1   0.0000
    45 H18      1.4449   6.6981  14.3334   H         1 RES1   0.0000
@<TRIPOS>BOND
     1     1    12    1
     2     2     7    1
     3     3    15    1
     4     4    17    2
     5     5    22    1
     6     6    23    1
     7     7     8    2
     8     8     9    1
     9     9    10    2
    10    10    11    1
    11    11    12    2
    12    12     7    1
    13    13     9    1
    14    14    13    2
    15    15    14    1
    16    16    15    2
    17    17    16    1
    18    18    17    1
    19    19    18    2
    20    20    19    1
    21    21    20    1
    22    22    21    2
    23    23    22    1
    24    24    23    2
    25    25    20    2
    26    26     2    1
    27    27     5    1
    28    28     8    1
    29    29    10    1
    30    30    11    1
    31    31    14    1
    32    32    16    1
    33    33    18    1
    34    34    19    1
    35    35    21    1
    36    36    24    1
    37    37    25    1
    38    38    26    1
    39    39    26    1
    40    40    26    1
    41    41    27    1
    42    42    27    1
    43    43    27    1
    44    44     1    1
    45    45     6    1
    46    24    25    1
@<TRIPOS>SUBSTRUCTURE
     1 RES1        1 GROUP             0 ****  ****    0  
