####################################################################### 
# 
# This file contains crystal structure data downloaded from the 
# Cambridge Structural Database (CSD) hosted by the Cambridge 
# Crystallographic Data Centre (CCDC).
# 
# Full information about CCDC data access policies and citation 
# guidelines are available at http://www.ccdc.cam.ac.uk/access/V1 
# 
# Audit and citation data items may have been added by the CCDC. 
# Please retain this information to preserve the provenance of 
# this file and to allow appropriate attribution of the data. 
# 
#######################################################################
@<TRIPOS>MOLECULE

     7     7     1     0     0
SMALL
NO_CHARGES
****
Generated from the CSD

@<TRIPOS>ATOM
     1 O1       3.0984   2.7600   5.7234   O.3       1 RES1   0.0000
     2 C1       3.1575   3.6764   4.6320   C.3       1 RES1   0.0000
     3 C2       4.3644   3.0652   5.1216   C.3       1 RES1   0.0000
     4 H1       2.8056   3.2451   3.8458   H         1 RES1   0.0000
     5 H2       2.9967   4.5566   4.8958   H         1 RES1   0.0000
     6 H3       4.9504   3.6486   5.6440   H         1 RES1   0.0000
     7 H4       4.6722   2.3624   4.5874   H         1 RES1   0.0000
@<TRIPOS>BOND
     1     1     2    1
     2     2     3    1
     3     3     1    1
     4     4     2    1
     5     5     2    1
     6     6     3    1
     7     7     3    1
@<TRIPOS>SUBSTRUCTURE
     1 RES1        1 GROUP             0 ****  ****    0  
@<TRIPOS>CRYSIN
    4.6450    8.4070    6.6640   90.0000  100.0000   90.0000   231     1
