####################################################################### 
# 
# This file contains crystal structure data downloaded from the 
# Cambridge Structural Database (CSD) hosted by the Cambridge 
# Crystallographic Data Centre (CCDC).
# 
# Full information about CCDC data access policies and citation 
# guidelines are available at http://www.ccdc.cam.ac.uk/access/V1 
# 
# Audit and citation data items may have been added by the CCDC. 
# Please retain this information to preserve the provenance of 
# this file and to allow appropriate attribution of the data. 
# 
#######################################################################
@<TRIPOS>MOLECULE

    28    28     1     0     0
SMALL
NO_CHARGES
****
Generated from the CSD

@<TRIPOS>ATOM
     1 O2       8.8218   3.9588   1.0393   O.3       1 RES1   0.0000
     2 O1       9.0251   5.2561   3.3001   O.3       1 RES1   0.0000
     3 O3       2.0772   3.7066   6.1092   O.2       1 RES1   0.0000
     4 C1       7.8508   4.5810   3.0979   C.2       1 RES1   0.0000
     5 C2       7.7505   3.8917   1.8906   C.2       1 RES1   0.0000
     6 C3       6.6087   3.1774   1.6183   C.2       1 RES1   0.0000
     7 H3       6.5333   2.7234   0.8100   H         1 RES1   0.0000
     8 C4       5.5723   3.1228   2.5275   C.2       1 RES1   0.0000
     9 H4       4.8128   2.6241   2.3299   H         1 RES1   0.0000
    10 C5       5.6513   3.8015   3.7261   C.2       1 RES1   0.0000
    11 C6       6.7981   4.5395   3.9942   C.2       1 RES1   0.0000
    12 H6       6.8583   5.0152   4.7915   H         1 RES1   0.0000
    13 C7       9.1934   5.9051   4.5589   C.3       1 RES1   0.0000
    14 H7A      8.5040   6.5636   4.6737   H         1 RES1   0.0000
    15 H7B     10.0521   6.3331   4.5860   H         1 RES1   0.0000
    16 H7C      9.1364   5.2562   5.2637   H         1 RES1   0.0000
    17 C8       4.5220   3.7339   4.7197   C.3       1 RES1   0.0000
    18 H8A      4.8167   4.1087   5.5641   H         1 RES1   0.0000
    19 H8B      4.2849   2.8058   4.8715   H         1 RES1   0.0000
    20 C9       3.3012   4.4861   4.2422   C.3       1 RES1   0.0000
    21 H9A      3.5460   5.4153   4.1117   H         1 RES1   0.0000
    22 H9B      3.0406   4.1293   3.3785   H         1 RES1   0.0000
    23 C10      2.1167   4.4315   5.1528   C.2       1 RES1   0.0000
    24 C11      0.9887   5.3285   4.8183   C.3       1 RES1   0.0000
    25 H11A     0.2919   5.2228   5.4698   H         1 RES1   0.0000
    26 H11B     0.6504   5.1057   3.9482   H         1 RES1   0.0000
    27 H11C     1.2929   6.2392   4.8199   H         1 RES1   0.0000
    28 H1O2     8.6827   3.4645   0.3431   H         1 RES1   0.0000
@<TRIPOS>BOND
     1     1     5    1
     2     1    28    1
     3     2     4    1
     4     2    13    1
     5     3    23    2
     6     4     5    1
     7     4    11    2
     8     5     6    2
     9     6     7    1
    10     6     8    1
    11     8     9    1
    12     8    10    2
    13    10    11    1
    14    10    17    1
    15    11    12    1
    16    13    14    1
    17    13    15    1
    18    13    16    1
    19    17    18    1
    20    17    19    1
    21    17    20    1
    22    20    21    1
    23    20    22    1
    24    20    23    1
    25    23    24    1
    26    24    25    1
    27    24    26    1
    28    24    27    1
@<TRIPOS>SUBSTRUCTURE
     1 RES1        1 GROUP             0 ****  ****    0  
@<TRIPOS>CRYSIN
   12.5473   11.8648    7.1478   90.0000   90.0000   90.0000    33     1
