####################################################################### 
# 
# This file contains crystal structure data downloaded from the 
# Cambridge Structural Database (CSD) hosted by the Cambridge 
# Crystallographic Data Centre (CCDC).
# 
# Full information about CCDC data access policies and citation 
# guidelines are available at http://www.ccdc.cam.ac.uk/access/V1 
# 
# Audit and citation data items may have been added by the CCDC. 
# Please retain this information to preserve the provenance of 
# this file and to allow appropriate attribution of the data. 
# 
#######################################################################
@<TRIPOS>MOLECULE
1134558
    18    18     1     0     0
SMALL
NO_CHARGES
****
Generated from the CSD

@<TRIPOS>ATOM
     1 C1       2.3296   3.0120  -0.0442   C.3       1 RES1   0.0000
     2 C2       3.6309   2.6327   0.6612   C.3       1 RES1   0.0000
     3 C3       1.3679   1.8360  -0.0497   C.3       1 RES1   0.0000
     4 H1       2.5249   3.1137  -0.9003   H         1 RES1   0.0000
     5 H2       1.9339   3.9361   0.5068   H         1 RES1   0.0000
     6 H3       3.3886   2.4691   1.6749   H         1 RES1   0.0000
     7 H4       4.3484   3.2200   0.6054   H         1 RES1   0.0000
     8 H5       1.0306   1.6074   0.9725   H         1 RES1   0.0000
     9 H6       0.5924   1.9211  -0.5813   H         1 RES1   0.0000
    10 C3E      4.2471   1.3840   0.0497   C.3       1 RES1   0.0000
    11 C2E      1.9841   0.5873  -0.6612   C.3       1 RES1   0.0000
    12 C1E      3.2854   0.2080   0.0442   C.3       1 RES1   0.0000
    13 H5E      4.5844   1.6126  -0.9725   H         1 RES1   0.0000
    14 H6E      5.0226   1.2989   0.5813   H         1 RES1   0.0000
    15 H3E      2.2264   0.7509  -1.6749   H         1 RES1   0.0000
    16 H4E      1.2666  -0.0000  -0.6054   H         1 RES1   0.0000
    17 H1E      3.0901   0.1063   0.9003   H         1 RES1   0.0000
    18 H2E      3.6811  -0.7161  -0.5068   H         1 RES1   0.0000
@<TRIPOS>BOND
     1     1     2    1
     2     2     6    1
     3     3     1    1
     4     4     1    1
     5     5     1    1
     6     7     2    1
     7     8     3    1
     8     9     3    1
     9    10     2    1
    10    11     3    1
    11    12    10    1
    12    13    10    1
    13    14    10    1
    14    15    11    1
    15    16    11    1
    16    17    12    1
    17    18    12    1
    18    11    12    1
@<TRIPOS>SUBSTRUCTURE
     1 RES1        1 GROUP             0 ****  ****    0  
@<TRIPOS>CRYSIN
   11.2300    6.4400    8.2000   90.0000  108.8300   90.0000    15     1
