####################################################################### 
# 
# This file contains crystal structure data downloaded from the 
# Cambridge Structural Database (CSD) hosted by the Cambridge 
# Crystallographic Data Centre (CCDC).
# 
# Full information about CCDC data access policies and citation 
# guidelines are available at http://www.ccdc.cam.ac.uk/access/V1 
# 
# Audit and citation data items may have been added by the CCDC. 
# Please retain this information to preserve the provenance of 
# this file and to allow appropriate attribution of the data. 
# 
#######################################################################
@<TRIPOS>MOLECULE
180807
    32    31     1     0     0
SMALL
NO_CHARGES
****
Generated from the CSD

@<TRIPOS>ATOM
     1 C1       5.5174   1.5154  12.0443   C.3       1 RES1   0.0000
     2 H1       6.2153   0.8920  11.7693   H         1 RES1   0.0000
     3 H2       4.7610   0.9998  12.2859   H         1 RES1   0.0000
     4 H3       5.8015   2.0033  12.8854   H         1 RES1   0.0000
     5 C2       5.1523   2.4771  10.9212   C.3       1 RES1   0.0000
     6 H4       5.9526   3.0256  10.6986   H         1 RES1   0.0000
     7 H5       4.4516   3.0697  11.2153   H         1 RES1   0.0000
     8 C3       4.6948   1.7699   9.6507   C.3       1 RES1   0.0000
     9 H6       5.3879   1.1417   9.3570   H         1 RES1   0.0000
    10 H7       3.9134   1.2265   9.8643   H         1 RES1   0.0000
    11 C4       4.3494   2.7247   8.5150   C.3       1 RES1   0.0000
    12 H8       5.1428   3.2489   8.3143   H         1 RES1   0.0000
    13 H9       3.6568   3.3425   8.8123   H         1 RES1   0.0000
    14 C5       3.8830   2.0185   7.2454   C.3       1 RES1   0.0000
    15 H10      4.5650   1.3872   6.9553   H         1 RES1   0.0000
    16 H11      3.0857   1.4719   7.4586   H         1 RES1   0.0000
    17 C5A      3.5464   2.9700   6.1045   C.3       1 RES1   0.0000
    18 C4A      3.0801   2.2637   4.8349   C.3       1 RES1   0.0000
    19 C3A      2.7347   3.2186   3.6993   C.3       1 RES1   0.0000
    20 C2A      2.2772   2.5114   2.4288   C.3       1 RES1   0.0000
    21 C1A      1.9120   3.4730   1.3056   C.3       1 RES1   0.0000
    22 H1A      1.2141   4.0965   1.5806   H         1 RES1   0.0000
    23 H2A      2.6685   3.9886   1.0640   H         1 RES1   0.0000
    24 H3A      1.6280   2.9852   0.4646   H         1 RES1   0.0000
    25 H4A      1.4768   1.9628   2.6513   H         1 RES1   0.0000
    26 H5A      2.9779   1.9187   2.1347   H         1 RES1   0.0000
    27 H6A      2.0416   3.8467   3.9930   H         1 RES1   0.0000
    28 H7A      3.5161   3.7620   3.4857   H         1 RES1   0.0000
    29 H8A      2.2867   1.7395   5.0356   H         1 RES1   0.0000
    30 H9A      3.7726   1.6459   4.5376   H         1 RES1   0.0000
    31 H10A     2.8645   3.6012   6.3946   H         1 RES1   0.0000
    32 H11A     4.3438   3.5166   5.8913   H         1 RES1   0.0000
@<TRIPOS>BOND
     1     1     2    1
     2     3     1    1
     3     4     1    1
     4     5     1    1
     5     6     5    1
     6     7     5    1
     7     8     5    1
     8     9     8    1
     9    10     8    1
    10    11     8    1
    11    12    11    1
    12    13    11    1
    13    14    11    1
    14    15    14    1
    15    16    14    1
    16    17    14    1
    17    18    17    1
    18    19    18    1
    19    20    19    1
    20    21    20    1
    21    22    21    1
    22    23    21    1
    23    24    21    1
    24    25    20    1
    25    26    20    1
    26    27    19    1
    27    28    19    1
    28    29    18    1
    29    30    18    1
    30    31    17    1
    31    32    17    1
@<TRIPOS>SUBSTRUCTURE
     1 RES1        1 GROUP             0 ****  ****    0  
@<TRIPOS>CRYSIN
    4.1741    4.7239   13.5066   85.9740   81.4630   74.6520     2     1
