####################################################################### 
# 
# This file contains crystal structure data downloaded from the 
# Cambridge Structural Database (CSD) hosted by the Cambridge 
# Crystallographic Data Centre (CCDC).
# 
# Full information about CCDC data access policies and citation 
# guidelines are available at http://www.ccdc.cam.ac.uk/access/V1 
# 
# Audit and citation data items may have been added by the CCDC. 
# Please retain this information to preserve the provenance of 
# this file and to allow appropriate attribution of the data. 
# 
#######################################################################
@<TRIPOS>MOLECULE
1150476
     8     7     1     0     0
SMALL
NO_CHARGES
****
Generated from the CSD

@<TRIPOS>ATOM
     1 C1      -0.1607   0.5394  -0.5196   C.3       1 RES1   0.0000
     2 H1       0.3043   0.2755  -1.4758   H         1 RES1   0.0000
     3 H2       0.2383   1.5171  -0.2268   H         1 RES1   0.0000
     4 H3      -1.2486   0.6264  -0.6149   H         1 RES1   0.0000
     5 C1B      0.1607  -0.5394   0.5196   C.3       1 RES1   0.0000
     6 H1B     -0.3043  -0.2755   1.4758   H         1 RES1   0.0000
     7 H2B     -0.2383  -1.5171   0.2268   H         1 RES1   0.0000
     8 H3B      1.2486  -0.6264   0.6149   H         1 RES1   0.0000
@<TRIPOS>BOND
     1     1     2    1
     2     3     1    1
     3     4     1    1
     4     5     1    1
     5     6     5    1
     6     7     5    1
     7     8     5    1
@<TRIPOS>SUBSTRUCTURE
     1 RES1        1 GROUP             0 ****  ****    0  
@<TRIPOS>CRYSIN
    4.2260    5.6230    5.8450   90.0000   90.4100   90.0000   231     1
