####################################################################### 
# 
# This file contains crystal structure data downloaded from the 
# Cambridge Structural Database (CSD) hosted by the Cambridge 
# Crystallographic Data Centre (CCDC).
# 
# Full information about CCDC data access policies and citation 
# guidelines are available at http://www.ccdc.cam.ac.uk/access/V1 
# 
# Audit and citation data items may have been added by the CCDC. 
# Please retain this information to preserve the provenance of 
# this file and to allow appropriate attribution of the data. 
# 
#######################################################################
@<TRIPOS>MOLECULE
1104286
    18    19     1     0     0
SMALL
NO_CHARGES
****
Generated from the CSD

@<TRIPOS>ATOM
     1 C1       0.4592   0.7060   0.3841   C.2       1 RES1   0.0000
     2 C2      -0.1959  -0.5964   0.6575   C.2       1 RES1   0.0000
     3 C3       0.6157   0.3186   2.5348   C.2       1 RES1   0.0000
     4 C4       0.9469   1.2192   1.5662   C.2       1 RES1   0.0000
     5 C5       0.5831   1.3778  -0.8319   C.2       1 RES1   0.0000
     6 C6       0.1736   0.9180  -2.0186   C.2       1 RES1   0.0000
     7 C7      -0.5546  -0.1096  -2.4672   C.2       1 RES1   0.0000
     8 C8      -0.9984  -1.1946  -1.6615   C.2       1 RES1   0.0000
     9 C9      -0.8131  -1.4144  -0.2496   C.2       1 RES1   0.0000
    10 C10     -0.0146  -0.8742   2.0778   C.2       1 RES1   0.0000
    11 H1       0.8406   0.4671   3.5641   H         1 RES1   0.0000
    12 H2       1.3324   2.1557   1.6976   H         1 RES1   0.0000
    13 H3       1.0399   2.3473  -0.8065   H         1 RES1   0.0000
    14 H4       0.5414   1.5509  -2.8421   H         1 RES1   0.0000
    15 H5      -0.8169  -0.1377  -3.5257   H         1 RES1   0.0000
    16 H6      -1.5583  -1.9641  -2.1738   H         1 RES1   0.0000
    17 H7      -1.2109  -2.3353   0.1383   H         1 RES1   0.0000
    18 H8      -0.4312  -1.7545   2.6116   H         1 RES1   0.0000
@<TRIPOS>BOND
     1     1     2    1
     2     2     9    2
     3     3     4    1
     4     4     1    2
     5     5     1    1
     6     6     5    2
     7     7     6    1
     8     8     7    2
     9     9     8    1
    10    10     2    1
    11    11     3    1
    12    12     4    1
    13    13     5    1
    14    14     6    1
    15    15     7    1
    16    16     8    1
    17    17     9    1
    18    18    10    1
    19     3    10    2
@<TRIPOS>SUBSTRUCTURE
     1 RES1        1 GROUP             0 ****  ****    0  
@<TRIPOS>CRYSIN
    7.8840    5.9880    7.8400   90.0000  101.5500   90.0000    14     2
