####################################################################### 
# 
# This file contains crystal structure data downloaded from the 
# Cambridge Structural Database (CSD) hosted by the Cambridge 
# Crystallographic Data Centre (CCDC).
# 
# Full information about CCDC data access policies and citation 
# guidelines are available at http://www.ccdc.cam.ac.uk/access/V1 
# 
# Audit and citation data items may have been added by the CCDC. 
# Please retain this information to preserve the provenance of 
# this file and to allow appropriate attribution of the data. 
# 
#######################################################################
@<TRIPOS>MOLECULE
1423904
    12    12     1     0     0
SMALL
NO_CHARGES
****
Generated from the CSD

@<TRIPOS>ATOM
     1 C1      -0.4463   1.3210  -0.0419   C.2       1 RES1   0.0000
     2 C2      -1.0209   0.4203   0.8549   C.2       1 RES1   0.0000
     3 C3      -0.5713  -0.8999   0.8960   C.2       1 RES1   0.0000
     4 H7      -0.7787   2.3408  -0.0868   H         1 RES1   0.0000
     5 H8      -1.8160   0.7270   1.5121   H         1 RES1   0.0000
     6 H9      -1.0077  -1.5883   1.5874   H         1 RES1   0.0000
     7 C1       0.4463  -1.3210   0.0419   C.2       1 RES1   0.0000
     8 C2       1.0209  -0.4203  -0.8549   C.2       1 RES1   0.0000
     9 C3       0.5713   0.8999  -0.8960   C.2       1 RES1   0.0000
    10 H7       0.7787  -2.3408   0.0868   H         1 RES1   0.0000
    11 H8       1.8160  -0.7270  -1.5121   H         1 RES1   0.0000
    12 H9       1.0077   1.5883  -1.5874   H         1 RES1   0.0000
@<TRIPOS>BOND
     1     1     2    2
     2     1     4    1
     3     1     9    1
     4     2     3    1
     5     2     5    1
     6     3     6    1
     7     3     7    2
     8     7     8    1
     9     7    10    1
    10     8     9    2
    11     8    11    1
    12     9    12    1
@<TRIPOS>SUBSTRUCTURE
     1 RES1        1 GROUP             0 ****  ****    0  
@<TRIPOS>CRYSIN
    7.4093    9.4541    6.7809   90.0000   90.0000   90.0000    61     1
