####################################################################### 
# 
# This file contains crystal structure data downloaded from the 
# Cambridge Structural Database (CSD) hosted by the Cambridge 
# Crystallographic Data Centre (CCDC).
# 
# Full information about CCDC data access policies and citation 
# guidelines are available at http://www.ccdc.cam.ac.uk/access/V1 
# 
# Audit and citation data items may have been added by the CCDC. 
# Please retain this information to preserve the provenance of 
# this file and to allow appropriate attribution of the data. 
# 
#######################################################################
@<TRIPOS>MOLECULE
1244275
     9     9     1     0     0
SMALL
NO_CHARGES
****
Generated from the CSD

@<TRIPOS>ATOM
     1 C1       0.0000   2.0098   0.0000   C.3       1 RES1   0.0000
     2 C2       0.7498   1.1788   0.9968   C.3       1 RES1   0.0000
     3 H1       0.0000   3.0574   0.1630   H         1 RES1   0.0000
     4 H2       0.0000   1.6747  -1.0174   H         1 RES1   0.0000
     5 H3       1.2570   0.3097   0.6423   H         1 RES1   0.0000
     6 H4       1.2642   1.6701   1.8017   H         1 RES1   0.0000
     7 C2B     -0.7498   1.1788   0.9968   C.3       1 RES1   0.0000
     8 H3B     -1.2570   0.3097   0.6423   H         1 RES1   0.0000
     9 H4B     -1.2642   1.6701   1.8017   H         1 RES1   0.0000
@<TRIPOS>BOND
     1     1     2    1
     2     2     5    1
     3     3     1    1
     4     4     1    1
     5     6     2    1
     6     7     1    1
     7     8     7    1
     8     9     7    1
     9     2     7    1
@<TRIPOS>SUBSTRUCTURE
     1 RES1        1 GROUP             0 ****  ****    0  
@<TRIPOS>CRYSIN
    7.9710    6.5750    5.8440   90.0000   90.0000   90.0000    36     1
