####################################################################### 
# 
# This file contains crystal structure data downloaded from the 
# Cambridge Structural Database (CSD) hosted by the Cambridge 
# Crystallographic Data Centre (CCDC).
# 
# Full information about CCDC data access policies and citation 
# guidelines are available at http://www.ccdc.cam.ac.uk/access/V1 
# 
# Audit and citation data items may have been added by the CCDC. 
# Please retain this information to preserve the provenance of 
# this file and to allow appropriate attribution of the data. 
# 
#######################################################################
@<TRIPOS>MOLECULE
1137270
    36    40     1     0     0
SMALL
NO_CHARGES
****
Generated from the CSD

@<TRIPOS>ATOM
     1 C1      -0.1983  -1.6408   5.4567   C.2       1 RES1   0.0000
     2 C2      -0.7197  -1.9951   3.1101   C.2       1 RES1   0.0000
     3 C3      -0.7709  -2.3987   4.4693   C.2       1 RES1   0.0000
     4 C4       0.3627  -0.4151   5.1245   C.2       1 RES1   0.0000
     5 C5       0.5206  -0.0241   3.8171   C.2       1 RES1   0.0000
     6 C6      -0.0719  -0.7820   2.7718   C.2       1 RES1   0.0000
     7 C7      -0.0157  -0.3669   1.3745   C.2       1 RES1   0.0000
     8 C8       0.6313   0.7912   0.9463   C.2       1 RES1   0.0000
     9 C9      -0.6577  -1.1787   0.3947   C.2       1 RES1   0.0000
    10 C10     -1.3229  -2.3884   0.7924   C.2       1 RES1   0.0000
    11 C11     -1.3394  -2.7874   2.0815   C.2       1 RES1   0.0000
    12 H1      -0.2562  -1.9378   6.4152   H         1 RES1   0.0000
    13 H2      -1.2395  -3.2678   4.7238   H         1 RES1   0.0000
    14 H3       0.8759   0.1605   5.8971   H         1 RES1   0.0000
    15 H4       0.9585   0.7912   3.6114   H         1 RES1   0.0000
    16 H5       1.0990   1.3645   1.6152   H         1 RES1   0.0000
    17 H6      -1.8179  -2.9697   0.1219   H         1 RES1   0.0000
    18 H7      -1.7931  -3.6003   2.3467   H         1 RES1   0.0000
    19 C9D      0.6577   1.1787  -0.3947   C.2       1 RES1   0.0000
    20 C8D     -0.6313  -0.7912  -0.9463   C.2       1 RES1   0.0000
    21 C7D      0.0157   0.3669  -1.3745   C.2       1 RES1   0.0000
    22 C10D     1.3229   2.3884  -0.7924   C.2       1 RES1   0.0000
    23 H5D     -1.0990  -1.3645  -1.6152   H         1 RES1   0.0000
    24 C6D      0.0719   0.7820  -2.7718   C.2       1 RES1   0.0000
    25 C11D     1.3394   2.7874  -2.0815   C.2       1 RES1   0.0000
    26 H6D      1.8179   2.9697  -0.1219   H         1 RES1   0.0000
    27 C2D      0.7197   1.9951  -3.1101   C.2       1 RES1   0.0000
    28 C5D     -0.5206   0.0241  -3.8171   C.2       1 RES1   0.0000
    29 H7D      1.7931   3.6003  -2.3467   H         1 RES1   0.0000
    30 C3D      0.7709   2.3987  -4.4693   C.2       1 RES1   0.0000
    31 C4D     -0.3627   0.4151  -5.1245   C.2       1 RES1   0.0000
    32 H4D     -0.9585  -0.7912  -3.6114   H         1 RES1   0.0000
    33 C1D      0.1983   1.6408  -5.4567   C.2       1 RES1   0.0000
    34 H2D      1.2395   3.2678  -4.7238   H         1 RES1   0.0000
    35 H3D     -0.8759  -0.1605  -5.8971   H         1 RES1   0.0000
    36 H1D      0.2562   1.9378  -6.4152   H         1 RES1   0.0000
@<TRIPOS>BOND
     1     1     3    2
     2     2     3    1
     3     3    13    1
     4     4     1    1
     5     5     4    2
     6     6     2    2
     7     7     6    1
     8     8     7    2
     9     9     7    1
    10    10     9    1
    11    11     2    1
    12    12     1    1
    13    14     4    1
    14    15     5    1
    15    16     8    1
    16    17    10    1
    17    18    11    1
    18    19     8    1
    19    20     9    2
    20    21    19    2
    21    22    19    1
    22    23    20    1
    23    24    21    1
    24    25    22    2
    25    26    22    1
    26    27    24    2
    27    28    24    1
    28    29    25    1
    29    30    27    1
    30    31    28    2
    31    32    28    1
    32    33    30    2
    33    34    30    1
    34    35    31    1
    35    36    33    1
    36     5     6    1
    37    10    11    2
    38    20    21    1
    39    25    27    1
    40    31    33    1
@<TRIPOS>SUBSTRUCTURE
     1 RES1        1 GROUP             0 ****  ****    0  
@<TRIPOS>CRYSIN
    8.2630   11.4660   15.2380   90.0000   90.0000   90.0000    61     3
