####################################################################### 
# 
# This file contains crystal structure data downloaded from the 
# Cambridge Structural Database (CSD) hosted by the Cambridge 
# Crystallographic Data Centre (CCDC).
# 
# Full information about CCDC data access policies and citation 
# guidelines are available at http://www.ccdc.cam.ac.uk/access/V1 
# 
# Audit and citation data items may have been added by the CCDC. 
# Please retain this information to preserve the provenance of 
# this file and to allow appropriate attribution of the data. 
# 
#######################################################################
@<TRIPOS>MOLECULE
1502159
    60    66     2     0     0
SMALL
NO_CHARGES
****
Generated from the CSD

@<TRIPOS>ATOM
     1 C1      -1.1178  -0.7415   4.7590   C.2       1 RES1   0.0000
     2 C2      -0.4867   0.1778   3.9381   C.2       1 RES1   0.0000
     3 C3      -0.4240  -0.0512   2.4957   C.2       1 RES1   0.0000
     4 C4       0.1968   0.8347   1.6638   C.2       1 RES1   0.0000
     5 C5       0.2890   0.6168   0.2581   C.2       1 RES1   0.0000
     6 C6      -0.8869  -1.4920   0.6313   C.2       1 RES1   0.0000
     7 C7      -0.9407  -1.2593   2.0027   C.2       1 RES1   0.0000
     8 C8      -1.6314  -2.1949   2.8811   C.2       1 RES1   0.0000
     9 C9      -1.6979  -1.9695   4.2611   C.2       1 RES1   0.0000
    10 H1      -1.1451  -0.5278   5.7500   H         1 RES1   0.0000
    11 H2      -0.0890   1.0971   4.2697   H         1 RES1   0.0000
    12 H4       0.6172   1.7709   2.0186   H         1 RES1   0.0000
    13 H6      -1.2908  -2.4335   0.2691   H         1 RES1   0.0000
    14 H8      -1.9518  -3.0975   2.4713   H         1 RES1   0.0000
    15 H9      -2.1253  -2.6827   4.8936   H         1 RES1   0.0000
    16 C1       1.1178   0.7415  -4.7590   C.2       1 RES1   0.0000
    17 C2       0.4867  -0.1778  -3.9381   C.2       1 RES1   0.0000
    18 C3       0.4240   0.0512  -2.4957   C.2       1 RES1   0.0000
    19 C4      -0.1968  -0.8347  -1.6638   C.2       1 RES1   0.0000
    20 C5      -0.2890  -0.6168  -0.2581   C.2       1 RES1   0.0000
    21 C6       0.8869   1.4920  -0.6313   C.2       1 RES1   0.0000
    22 C7       0.9407   1.2593  -2.0027   C.2       1 RES1   0.0000
    23 C8       1.6314   2.1949  -2.8811   C.2       1 RES1   0.0000
    24 C9       1.6979   1.9695  -4.2611   C.2       1 RES1   0.0000
    25 H1       1.1451   0.5278  -5.7500   H         1 RES1   0.0000
    26 H2       0.0890  -1.0971  -4.2697   H         1 RES1   0.0000
    27 H4      -0.6172  -1.7709  -2.0186   H         1 RES1   0.0000
    28 H6       1.2908   2.4335  -0.2691   H         1 RES1   0.0000
    29 H8       1.9518   3.0975  -2.4713   H         1 RES1   0.0000
    30 H9       2.1253   2.6827  -4.8936   H         1 RES1   0.0000
    31 C1'      2.4592   2.5647   4.6330   C.2       2 RES2   0.0000
    32 C2'      2.4470   3.4972   3.5846   C.2       2 RES2   0.0000
    33 C3'      3.1038   3.1243   2.3820   C.2       2 RES2   0.0000
    34 C4'      3.1586   4.0437   1.2821   C.2       2 RES2   0.0000
    35 C5'      3.8378   3.7537   0.0636   C.2       2 RES2   0.0000
    36 C6'      4.3756   1.4898   1.0179   C.2       2 RES2   0.0000
    37 C7'      3.7245   1.7986   2.2156   C.2       2 RES2   0.0000
    38 C8'      3.6656   0.9233   3.2848   C.2       2 RES2   0.0000
    39 C9'      3.0479   1.1846   4.4593   C.2       2 RES2   0.0000
    40 H1'      1.9845   2.8848   5.5543   H         2 RES2   0.0000
    41 H2'      1.9892   4.4857   3.7314   H         2 RES2   0.0000
    42 H4'      2.7039   5.0599   1.3947   H         2 RES2   0.0000
    43 H6'      4.8244   0.5183   0.8809   H         2 RES2   0.0000
    44 H8'      4.1377  -0.0684   3.0952   H         2 RES2   0.0000
    45 H9'      3.0208   0.4771   5.1995   H         2 RES2   0.0000
    46 C1'      5.7886   3.5695  -4.6330   C.2       2 RES2   0.0000
    47 C2'      5.8008   2.6370  -3.5846   C.2       2 RES2   0.0000
    48 C3'      5.1440   3.0098  -2.3820   C.2       2 RES2   0.0000
    49 C4'      5.0892   2.0904  -1.2821   C.2       2 RES2   0.0000
    50 C5'      4.4101   2.3804  -0.0636   C.2       2 RES2   0.0000
    51 C6'      3.8722   4.6444  -1.0179   C.2       2 RES2   0.0000
    52 C7'      4.5233   4.3355  -2.2156   C.2       2 RES2   0.0000
    53 C8'      4.5822   5.2109  -3.2848   C.2       2 RES2   0.0000
    54 C9'      5.1999   4.9495  -4.4593   C.2       2 RES2   0.0000
    55 H1'      6.2633   3.2493  -5.5543   H         2 RES2   0.0000
    56 H2'      6.2586   1.6484  -3.7314   H         2 RES2   0.0000
    57 H4'      5.5440   1.0742  -1.3947   H         2 RES2   0.0000
    58 H6'      3.4234   5.6158  -0.8809   H         2 RES2   0.0000
    59 H8'      4.1102   6.2025  -3.0952   H         2 RES2   0.0000
    60 H9'      5.2270   5.6571  -5.1995   H         2 RES2   0.0000
@<TRIPOS>BOND
     1     1     2    2
     2     1     9    1
     3     1    10    1
     4     2     3    1
     5     2    11    1
     6     3     4    2
     7     3     7    1
     8     4     5    1
     9     4    12    1
    10     5    20    1
    11     5    21    2
    12     6     7    2
    13     6    13    1
    14     6    20    1
    15     7     8    1
    16     8     9    2
    17     8    14    1
    18     9    15    1
    19    16    17    2
    20    16    24    1
    21    16    25    1
    22    17    18    1
    23    17    26    1
    24    18    19    1
    25    18    22    2
    26    19    20    2
    27    19    27    1
    28    21    22    1
    29    21    28    1
    30    22    23    1
    31    23    24    2
    32    23    29    1
    33    24    30    1
    34    31    32    2
    35    31    39    1
    36    31    40    1
    37    32    33    1
    38    32    41    1
    39    33    34    2
    40    33    37    1
    41    34    35    1
    42    34    42    1
    43    35    50    1
    44    35    51    2
    45    36    37    2
    46    36    43    1
    47    36    50    1
    48    37    38    1
    49    38    39    2
    50    38    44    1
    51    39    45    1
    52    46    47    2
    53    46    54    1
    54    46    55    1
    55    47    48    1
    56    47    56    1
    57    48    49    1
    58    48    52    2
    59    49    50    2
    60    49    57    1
    61    51    52    1
    62    51    58    1
    63    52    53    1
    64    53    54    2
    65    53    59    1
    66    54    60    1
@<TRIPOS>SUBSTRUCTURE
     1 RES1        1 GROUP             0 ****  ****    0  
     2 RES2       31 GROUP             0 ****  ****    0  
@<TRIPOS>CRYSIN
    7.9800    6.1400   13.5700  101.3000  113.2000   87.5000     2     1
