####################################################################### 
# 
# This file contains crystal structure data downloaded from the 
# Cambridge Structural Database (CSD) hosted by the Cambridge 
# Crystallographic Data Centre (CCDC).
# 
# Full information about CCDC data access policies and citation 
# guidelines are available at http://www.ccdc.cam.ac.uk/access/V1 
# 
# Audit and citation data items may have been added by the CCDC. 
# Please retain this information to preserve the provenance of 
# this file and to allow appropriate attribution of the data. 
# 
#######################################################################
@<TRIPOS>MOLECULE

    21    24     1     0     0
SMALL
NO_CHARGES
****
Generated from the CSD

@<TRIPOS>ATOM
     1 O1       2.7369   2.3023   0.2492   O.3       1 RES1   0.0000
     2 C1       1.4313   0.3304   2.7265   C.3       1 RES1   0.0000
     3 C2       1.1706  -1.0880   2.4412   C.2       1 RES1   0.0000
     4 C3       0.7870  -2.0308   3.2584   C.2       1 RES1   0.0000
     5 C4       0.5908  -1.9488   4.7042   C.2       1 RES1   0.0000
     6 C5       1.4948  -1.5173   5.6040   C.2       1 RES1   0.0000
     7 C6       2.8447  -1.0333   5.3897   C.2       1 RES1   0.0000
     8 C7       3.2733  -0.0842   4.5803   C.2       1 RES1   0.0000
     9 C8       2.4487   0.7976   3.7554   C.3       1 RES1   0.0000
    10 C9       2.7248   0.9849   2.2850   C.3       1 RES1   0.0000
    11 C10      2.8018   2.3486   1.6666   C.3       1 RES1   0.0000
    12 C11      1.5072   1.8435  -0.2737   C.3       1 RES1   0.0000
    13 C12      4.2617   3.8407   3.2416   C.3       1 RES1   0.0000
    14 C13      5.4269   3.5734   4.1336   C.2       1 RES1   0.0000
    15 C14      6.4020   4.3500   4.5312   C.2       1 RES1   0.0000
    16 C15      6.6724   5.7537   4.1878   C.2       1 RES1   0.0000
    17 C16      6.6618   6.3282   2.9795   C.2       1 RES1   0.0000
    18 C17      6.4654   5.7958   1.6615   C.2       1 RES1   0.0000
    19 C18      5.4961   5.0192   1.2148   C.2       1 RES1   0.0000
    20 C19      4.2725   4.4973   1.9054   C.3       1 RES1   0.0000
    21 C20      4.0924   3.0200   2.0139   C.3       1 RES1   0.0000
@<TRIPOS>BOND
     1     1    11    1
     2     2     3    1
     3     3     4    2
     4     4     5    1
     5     5     6    2
     6     6     7    1
     7     7     8    2
     8     8     9    1
     9     9     2    1
    10    10     2    1
    11    11    10    1
    12    12     1    1
    13    13    14    1
    14    14    15    2
    15    15    16    1
    16    16    17    2
    17    17    18    1
    18    18    19    2
    19    19    20    1
    20    20    13    1
    21    21    11    1
    22     9    10    1
    23    13    21    1
    24    20    21    1
@<TRIPOS>SUBSTRUCTURE
     1 RES1        1 GROUP             0 ****  ****    0  
@<TRIPOS>CRYSIN
    6.0640   21.0450   13.4460   90.0000  106.2400   90.0000    14     1
