####################################################################### 
# 
# This file contains crystal structure data downloaded from the 
# Cambridge Structural Database (CSD) hosted by the Cambridge 
# Crystallographic Data Centre (CCDC).
# 
# Full information about CCDC data access policies and citation 
# guidelines are available at http://www.ccdc.cam.ac.uk/access/V1 
# 
# Audit and citation data items may have been added by the CCDC. 
# Please retain this information to preserve the provenance of 
# this file and to allow appropriate attribution of the data. 
# 
#######################################################################
@<TRIPOS>MOLECULE

    30    31     1     0     0
SMALL
NO_CHARGES
****
Generated from the CSD

@<TRIPOS>ATOM
     1 O1      11.9840  -0.3767  -0.0670   O.3       1 RES1   0.0000
     2 O2      13.4924  -2.0192  -3.5928   O.3       1 RES1   0.0000
     3 H1      13.7816  -1.2679  -3.7482   H         1 RES1   0.0000
     4 C1      13.1143  -1.2587   0.1087   C.3       1 RES1   0.0000
     5 H2      12.7982  -2.1216   0.4486   H         1 RES1   0.0000
     6 C2      13.8086  -1.4756  -1.2394   C.3       1 RES1   0.0000
     7 H3      14.5448  -2.0949  -1.1209   H         1 RES1   0.0000
     8 H4      14.1753  -0.6324  -1.5472   H         1 RES1   0.0000
     9 C3      12.8523  -2.0290  -2.3100   C.3       1 RES1   0.0000
    10 C4      11.5982  -1.1430  -2.3471   C.3       1 RES1   0.0000
    11 H5      11.8273  -0.2789  -2.7238   H         1 RES1   0.0000
    12 H6      10.9316  -1.5528  -2.9207   H         1 RES1   0.0000
    13 C5      11.0137  -0.9483  -0.9579   C.3       1 RES1   0.0000
    14 H7      10.2415  -0.3638  -1.0123   H         1 RES1   0.0000
    15 H8      10.7181  -1.8039  -0.6083   H         1 RES1   0.0000
    16 C6      13.9957  -0.6081   1.1540   C.2       1 RES1   0.0000
    17 C7      14.2116  -1.2442   2.3737   C.2       1 RES1   0.0000
    18 H9      13.8362  -2.0810   2.5316   H         1 RES1   0.0000
    19 C8      14.9865  -0.6348   3.3601   C.2       1 RES1   0.0000
    20 H10     15.1181  -1.0629   4.1754   H         1 RES1   0.0000
    21 C9      15.5592   0.6015   3.1327   C.2       1 RES1   0.0000
    22 H11     16.0881   0.9986   3.7863   H         1 RES1   0.0000
    23 C10     15.3410   1.2472   1.9246   C.2       1 RES1   0.0000
    24 H12     15.7188   2.0822   1.7701   H         1 RES1   0.0000
    25 C11     14.5559   0.6476   0.9405   C.2       1 RES1   0.0000
    26 H13     14.4054   1.0902   0.1365   H         1 RES1   0.0000
    27 C12     12.4997  -3.4925  -2.0751   C.3       1 RES1   0.0000
    28 H14     11.8993  -3.7914  -2.7619   H         1 RES1   0.0000
    29 H15     12.0767  -3.5865  -1.2184   H         1 RES1   0.0000
    30 H16     13.3011  -4.0219  -2.0970   H         1 RES1   0.0000
@<TRIPOS>BOND
     1     1     4    1
     2     2     3    1
     3     4     5    1
     4     6     4    1
     5     7     6    1
     6     8     6    1
     7     9     2    1
     8    10     9    1
     9    11    10    1
    10    12    10    1
    11    13     1    1
    12    14    13    1
    13    15    13    1
    14    16     4    1
    15    17    16    2
    16    18    17    1
    17    19    17    1
    18    20    19    1
    19    21    19    2
    20    22    21    1
    21    23    21    1
    22    24    23    1
    23    25    16    1
    24    26    25    1
    25    27     9    1
    26    28    27    1
    27    29    27    1
    28    30    27    1
    29     6     9    1
    30    10    13    1
    31    23    25    2
@<TRIPOS>SUBSTRUCTURE
     1 RES1        1 GROUP             0 ****  ****    0  
@<TRIPOS>CRYSIN
   18.7887    6.0634   10.4178   90.0000  116.9450   90.0000     9     1
