####################################################################### 
# 
# This file contains crystal structure data downloaded from the 
# Cambridge Structural Database (CSD) hosted by the Cambridge 
# Crystallographic Data Centre (CCDC).
# 
# Full information about CCDC data access policies and citation 
# guidelines are available at http://www.ccdc.cam.ac.uk/access/V1 
# 
# Audit and citation data items may have been added by the CCDC. 
# Please retain this information to preserve the provenance of 
# this file and to allow appropriate attribution of the data. 
# 
#######################################################################
@<TRIPOS>MOLECULE

    28    29     1     0     0
SMALL
NO_CHARGES
****
Generated from the CSD

@<TRIPOS>ATOM
     1 C1       1.0982  -3.9317   3.5457   C.2       1 RES1   0.0000
     2 C2       4.0338   4.7989   2.8031   C.2       1 RES1   0.0000
     3 C3       3.2086   4.1595   3.6829   C.2       1 RES1   0.0000
     4 C4       2.3843   4.9171   4.5534   C.2       1 RES1   0.0000
     5 C5       2.4765   6.3040   4.4565   C.2       1 RES1   0.0000
     6 C6       3.2703   6.9050   3.5617   C.2       1 RES1   0.0000
     7 C7       1.9090  -3.2909   4.4208   C.2       1 RES1   0.0000
     8 C8       2.0397  -1.9224   4.4641   C.2       1 RES1   0.0000
     9 C9       1.3174  -1.1791   3.5607   C.2       1 RES1   0.0000
    10 C10      0.4806  -1.8284   2.6395   C.2       1 RES1   0.0000
    11 C11      0.4117  -3.1769   2.6395   C.2       1 RES1   0.0000
    12 C12      1.4034   0.2976   3.4733   C.2       1 RES1   0.0000
    13 C13      3.2086   2.6956   3.7008   C.2       1 RES1   0.0000
    14 C14      4.0857   6.1787   2.7420   C.2       1 RES1   0.0000
    15 H1       1.0194  -4.9228   3.5476   H         1 RES1   0.0000
    16 H2       4.5967   4.2620   2.2015   H         1 RES1   0.0000
    17 H3       1.7766   4.4585   5.2020   H         1 RES1   0.0000
    18 H4       1.9135   6.8409   5.0516   H         1 RES1   0.0000
    19 H5       3.2954   7.8932   3.5184   H         1 RES1   0.0000
    20 H6       2.4174  -3.8120   5.0553   H         1 RES1   0.0000
    21 H7       2.6286  -1.4710   5.1315   H         1 RES1   0.0000
    22 H8      -0.0295  -1.3087   2.0116   H         1 RES1   0.0000
    23 H9      -0.1745  -3.6298   1.9787   H         1 RES1   0.0000
    24 H10      4.7014   6.6358   2.0859   H         1 RES1   0.0000
    25 O1       2.1963   0.7618   4.4932   O.3       1 RES1   0.0000
    26 O2       0.8708   0.9940   2.6959   O.2       1 RES1   0.0000
    27 O3       2.1874   2.2115   4.4650   O.3       1 RES1   0.0000
    28 O4       3.9326   1.9808   3.0917   O.2       1 RES1   0.0000
@<TRIPOS>BOND
     1     1     7    2
     2     2     3    1
     3     3     4    2
     4     4     5    1
     5     5     6    2
     6     6    14    1
     7     7     8    1
     8     8     9    2
     9     9    10    1
    10    10    11    2
    11    11     1    1
    12    12     9    1
    13    13     3    1
    14    14     2    2
    15    15     1    1
    16    16     2    1
    17    17     4    1
    18    18     5    1
    19    19     6    1
    20    20     7    1
    21    21     8    1
    22    22    10    1
    23    23    11    1
    24    24    14    1
    25    25    12    1
    26    26    12    2
    27    27    13    1
    28    28    13    2
    29    25    27    1
@<TRIPOS>SUBSTRUCTURE
     1 RES1        1 GROUP             0 ****  ****    0  
@<TRIPOS>CRYSIN
    8.9500   14.2400    9.4000   90.0000   90.0000   90.0000    19     1
