####################################################################### 
# 
# This file contains crystal structure data downloaded from the 
# Cambridge Structural Database (CSD) hosted by the Cambridge 
# Crystallographic Data Centre (CCDC).
# 
# Full information about CCDC data access policies and citation 
# guidelines are available at http://www.ccdc.cam.ac.uk/access/V1 
# 
# Audit and citation data items may have been added by the CCDC. 
# Please retain this information to preserve the provenance of 
# this file and to allow appropriate attribution of the data. 
# 
#######################################################################
@<TRIPOS>MOLECULE

    19    19     1     0     0
SMALL
NO_CHARGES
****
Generated from the CSD

@<TRIPOS>ATOM
     1 C1       0.9415   4.1522   3.8949   C.2       1 RES1   0.0000
     2 C2       1.7984   3.1020   3.5712   C.2       1 RES1   0.0000
     3 H2       1.5888   2.2397   3.8489   H         1 RES1   0.0000
     4 C3       2.9507   3.3175   2.8473   C.2       1 RES1   0.0000
     5 C4       3.2613   4.6239   2.4422   C.2       1 RES1   0.0000
     6 C5       2.3990   5.6658   2.7389   C.2       1 RES1   0.0000
     7 H5       2.5958   6.5260   2.4454   H         1 RES1   0.0000
     8 C6       1.2473   5.4364   3.4680   C.2       1 RES1   0.0000
     9 H6       0.6780   6.1426   3.6725   H         1 RES1   0.0000
    10 C7      -0.2409   3.8695   4.6994   C.2       1 RES1   0.0000
    11 H7      -0.3921   2.9829   4.9358   H         1 RES1   0.0000
    12 C8       4.8116   6.0356   1.3132   C.3       1 RES1   0.0000
    13 H8A      4.1368   6.3852   0.7261   H         1 RES1   0.0000
    14 H8B      5.6465   5.9795   0.8427   H         1 RES1   0.0000
    15 H8C      4.9091   6.6170   2.0705   H         1 RES1   0.0000
    16 O1      -1.0435   4.6889   5.0861   O.2       1 RES1   0.0000
    17 O2       4.4290   4.7393   1.7561   O.3       1 RES1   0.0000
    18 O3       3.7580   2.2668   2.5720   O.3       1 RES1   0.0000
    19 H3       4.3365   2.4990   2.0396   H         1 RES1   0.0000
@<TRIPOS>BOND
     1     1     2    1
     2     1     8    2
     3     1    10    1
     4     2     3    1
     5     2     4    2
     6     4     5    1
     7     4    18    1
     8     5     6    2
     9     5    17    1
    10     6     7    1
    11     6     8    1
    12     8     9    1
    13    10    11    1
    14    10    16    2
    15    12    13    1
    16    12    14    1
    17    12    15    1
    18    12    17    1
    19    18    19    1
@<TRIPOS>SUBSTRUCTURE
     1 RES1        1 GROUP             0 ****  ****    0  
@<TRIPOS>CRYSIN
    6.3780   13.3460    8.5150   90.0000   97.3600   90.0000    14     1
