####################################################################### 
# 
# This file contains crystal structure data downloaded from the 
# Cambridge Structural Database (CSD) hosted by the Cambridge 
# Crystallographic Data Centre (CCDC).
# 
# Full information about CCDC data access policies and citation 
# guidelines are available at http://www.ccdc.cam.ac.uk/access/V1 
# 
# Audit and citation data items may have been added by the CCDC. 
# Please retain this information to preserve the provenance of 
# this file and to allow appropriate attribution of the data. 
# 
#######################################################################
@<TRIPOS>MOLECULE
1137290
    71    79     2     0     0
SMALL
NO_CHARGES
****
Generated from the CSD

@<TRIPOS>ATOM
     1 C1      -2.7778   1.2235   7.5755   C.2       1 RES1   0.0000
     2 C2      -2.5411   2.3010   8.3720   C.2       1 RES1   0.0000
     3 C3      -1.3494   2.4372   9.0834   C.2       1 RES1   0.0000
     4 C4      -0.4447   1.4459   9.0229   C.2       1 RES1   0.0000
     5 C5      -0.6429   0.3025   8.2283   C.2       1 RES1   0.0000
     6 C6       0.2490  -0.8026   8.2718   C.2       1 RES1   0.0000
     7 C7      -0.0665  -1.9638   7.7193   C.2       1 RES1   0.0000
     8 C8      -1.2508  -2.1195   6.9360   C.2       1 RES1   0.0000
     9 C9      -1.6630  -3.3999   6.5217   C.2       1 RES1   0.0000
    10 C10     -2.8159  -3.5601   5.8425   C.2       1 RES1   0.0000
    11 C11     -3.5477  -2.4425   5.3430   C.2       1 RES1   0.0000
    12 C12     -4.6859  -2.6142   4.5313   C.2       1 RES1   0.0000
    13 C13     -5.2966  -1.5901   3.9315   C.2       1 RES1   0.0000
    14 C14     -4.7101  -0.2687   3.9788   C.2       1 RES1   0.0000
    15 C15     -5.1953   0.7786   3.1672   C.2       1 RES1   0.0000
    16 C16     -4.5286   1.9611   3.0802   C.2       1 RES1   0.0000
    17 C17     -3.3402   2.1631   3.7840   C.2       1 RES1   0.0000
    18 C18     -2.8984   1.1817   4.6240   C.2       1 RES1   0.0000
    19 C19     -3.5742  -0.0472   4.8000   C.2       1 RES1   0.0000
    20 C20     -3.0788  -1.1318   5.6230   C.2       1 RES1   0.0000
    21 C21     -2.0483  -0.9877   6.6276   C.2       1 RES1   0.0000
    22 C22     -1.8229   0.1984   7.4279   C.2       1 RES1   0.0000
    23 H1      -3.6600   1.1123   7.0950   H         1 RES1   0.0000
    24 H2      -3.1657   2.9185   8.4572   H         1 RES1   0.0000
    25 H3      -1.1938   3.2656   9.6302   H         1 RES1   0.0000
    26 H4       0.4497   1.4415   9.6113   H         1 RES1   0.0000
    27 H5       1.0397  -0.6318   8.9113   H         1 RES1   0.0000
    28 H6       0.5292  -2.7584   7.7193   H         1 RES1   0.0000
    29 H7      -1.0331  -4.2888   6.8868   H         1 RES1   0.0000
    30 H8      -3.2655  -4.4223   5.5057   H         1 RES1   0.0000
    31 H9      -6.1447  -1.6194   3.4813   H         1 RES1   0.0000
    32 H10     -5.9594   0.5784   2.6299   H         1 RES1   0.0000
    33 H11     -4.7701   2.6961   2.5542   H         1 RES1   0.0000
    34 H12     -2.7912   2.9897   3.5948   H         1 RES1   0.0000
    35 H13     -2.1524   1.2813   5.1084   H         1 RES1   0.0000
    36 C23      2.6982   5.4776   9.5867   C.2       2 RES2   0.0000
    37 C24      1.9206   4.4161   9.9840   C.2       2 RES2   0.0000
    38 C25      1.2985   4.4303  11.2327   C.2       2 RES2   0.0000
    39 C26      1.4054   5.5230  12.0179   C.2       2 RES2   0.0000
    40 C27      2.1427   6.6415  11.6357   C.2       2 RES2   0.0000
    41 C28      2.1288   7.9094  12.3206   C.2       2 RES2   0.0000
    42 C29      2.6499   8.9896  11.8249   C.2       2 RES2   0.0000
    43 C30      3.4102   8.9932  10.6273   C.2       2 RES2   0.0000
    44 C31      3.8400  10.2398  10.0275   C.2       2 RES2   0.0000
    45 C32      3.6758   7.7493   9.9973   C.2       2 RES2   0.0000
    46 C33      2.8997   6.6023  10.4097   C.2       2 RES2   0.0000
    47 H14      3.1392   5.4634   8.6275   H         2 RES2   0.0000
    48 H15      1.6622   3.6126   9.2329   H         2 RES2   0.0000
    49 H16      0.8552   3.6927  11.5411   H         2 RES2   0.0000
    50 H17      0.9119   5.3922  12.8844   H         2 RES2   0.0000
    51 H18      1.5319   7.6167  13.1115   H         2 RES2   0.0000
    52 H19      2.3795   9.6810  12.3168   H         2 RES2   0.0000
    53 H20      3.7079  11.0157  10.6330   H         2 RES2   0.0000
    54 C31B     4.4703  10.2398   8.8923   C.2       2 RES2   0.0000
    55 C32B     4.6345   7.7493   8.9226   C.2       2 RES2   0.0000
    56 C30B     4.9001   8.9932   8.2926   C.2       2 RES2   0.0000
    57 H20B     4.6024  11.0157   8.2869   H         2 RES2   0.0000
    58 C33B     5.4106   6.6023   8.5102   C.2       2 RES2   0.0000
    59 C29B     5.6604   8.9896   7.0950   C.2       2 RES2   0.0000
    60 C23B     5.6121   5.4776   9.3332   C.2       2 RES2   0.0000
    61 C27B     6.1675   6.6415   7.2842   C.2       2 RES2   0.0000
    62 C28B     6.1815   7.9094   6.5993   C.2       2 RES2   0.0000
    63 H19B     5.9308   9.6810   6.6030   H         2 RES2   0.0000
    64 C24B     6.3897   4.4161   8.9359   C.2       2 RES2   0.0000
    65 H14B     5.1711   5.4634  10.2924   H         2 RES2   0.0000
    66 C26B     6.9049   5.5230   6.9020   C.2       2 RES2   0.0000
    67 H18B     6.7784   7.6167   5.8084   H         2 RES2   0.0000
    68 C25B     7.0118   4.4303   7.6871   C.2       2 RES2   0.0000
    69 H15B     6.6481   3.6126   9.6870   H         2 RES2   0.0000
    70 H17B     7.3984   5.3922   6.0354   H         2 RES2   0.0000
    71 H16B     7.4551   3.6927   7.3788   H         2 RES2   0.0000
@<TRIPOS>BOND
     1     1     2    2
     2     2     3    1
     3     3     4    2
     4     4     5    1
     5     5     6    1
     6     6     7    2
     7     7     8    1
     8     8     9    1
     9     9    10    2
    10    10    11    1
    11    11    12    1
    12    12    13    2
    13    13    14    1
    14    14    15    1
    15    15    16    2
    16    16    17    1
    17    17    18    2
    18    18    19    1
    19    19    14    2
    20    20    11    2
    21    21     8    2
    22    22     1    1
    23    23     1    1
    24    24     2    1
    25    25     3    1
    26    26     4    1
    27    27     6    1
    28    28     7    1
    29    29     9    1
    30    30    10    1
    31    31    13    1
    32    32    15    1
    33    33    16    1
    34    34    17    1
    35    35    18    1
    36     5    22    2
    37    19    20    1
    38    20    21    1
    39    21    22    1
    40    36    37    2
    41    37    38    1
    42    38    39    2
    43    39    40    1
    44    40    41    1
    45    41    42    2
    46    42    43    1
    47    43    44    1
    48    44    53    1
    49    45    43    2
    50    46    36    1
    51    47    36    1
    52    48    37    1
    53    49    38    1
    54    50    39    1
    55    51    41    1
    56    52    42    1
    57    54    44    2
    58    55    45    1
    59    56    54    1
    60    57    54    1
    61    58    55    1
    62    59    56    1
    63    60    58    1
    64    61    58    2
    65    62    59    2
    66    63    59    1
    67    64    60    2
    68    65    60    1
    69    66    61    1
    70    67    62    1
    71    68    64    1
    72    69    64    1
    73    70    66    1
    74    71    68    1
    75    40    46    2
    76    45    46    1
    77    55    56    2
    78    61    62    1
    79    66    68    2
@<TRIPOS>SUBSTRUCTURE
     1 RES1        1 GROUP             0 ****  ****    0  
     2 RES2       36 GROUP             0 ****  ****    0  
@<TRIPOS>CRYSIN
   26.0130    8.8980   19.4940   90.0000  103.9400   90.0000    15     2
