####################################################################### 
# 
# This file contains crystal structure data downloaded from the 
# Cambridge Structural Database (CSD) hosted by the Cambridge 
# Crystallographic Data Centre (CCDC).
# 
# Full information about CCDC data access policies and citation 
# guidelines are available at http://www.ccdc.cam.ac.uk/access/V1 
# 
# Audit and citation data items may have been added by the CCDC. 
# Please retain this information to preserve the provenance of 
# this file and to allow appropriate attribution of the data. 
# 
#######################################################################
@<TRIPOS>MOLECULE
1174682
    23    22     1     0     0
SMALL
NO_CHARGES
****
Generated from the CSD

@<TRIPOS>ATOM
     1 C1       1.8842   1.3686   1.2551   C.3       1 RES1   0.0000
     2 C2       2.3540   2.5751   2.0718   C.3       1 RES1   0.0000
     3 C3       2.6936   3.7788   1.2005   C.3       1 RES1   0.0000
     4 C4       3.1675   4.9981   1.9988   C.3       1 RES1   0.0000
     5 C5       3.5122   6.1963   1.1166   C.3       1 RES1   0.0000
     6 C6       3.9796   7.4219   1.9072   C.3       1 RES1   0.0000
     7 C7       4.3473   8.5987   1.0147   C.3       1 RES1   0.0000
     8 H1       1.0920   1.6176   0.7081   H         1 RES1   0.0000
     9 H2       2.6455   1.0620   0.6765   H         1 RES1   0.0000
    10 H3       1.6588   0.6268   1.8716   H         1 RES1   0.0000
    11 H4       1.6203   2.8355   2.7014   H         1 RES1   0.0000
    12 H5       3.1665   2.3229   2.6022   H         1 RES1   0.0000
    13 H6       3.4337   3.5147   0.5637   H         1 RES1   0.0000
    14 H7       1.8887   4.0271   0.6675   H         1 RES1   0.0000
    15 H8       2.4389   5.2664   2.6293   H         1 RES1   0.0000
    16 H9       3.9780   4.7341   2.5255   H         1 RES1   0.0000
    17 H10      4.2439   5.9261   0.4826   H         1 RES1   0.0000
    18 H11      2.7048   6.4584   0.5863   H         1 RES1   0.0000
    19 H12      3.2540   7.6986   2.5300   H         1 RES1   0.0000
    20 H13      4.7911   7.1652   2.4489   H         1 RES1   0.0000
    21 H14      5.0326   8.3001   0.3518   H         1 RES1   0.0000
    22 H15      3.5672   8.8333   0.4375   H         1 RES1   0.0000
    23 H16      4.6640   9.3557   1.5785   H         1 RES1   0.0000
@<TRIPOS>BOND
     1     1     2    1
     2     2     3    1
     3     3     4    1
     4     4     5    1
     5     5     6    1
     6     6     7    1
     7     7    21    1
     8     8     1    1
     9     9     1    1
    10    10     1    1
    11    11     2    1
    12    12     2    1
    13    13     3    1
    14    14     3    1
    15    15     4    1
    16    16     4    1
    17    17     5    1
    18    18     5    1
    19    19     6    1
    20    20     6    1
    21    22     7    1
    22    23     7    1
@<TRIPOS>SUBSTRUCTURE
     1 RES1        1 GROUP             0 ****  ****    0  
@<TRIPOS>CRYSIN
    4.1500   19.9700    4.6900   91.3000   74.3000   85.1000     2     1
