####################################################################### 
# 
# This file contains crystal structure data downloaded from the 
# Cambridge Structural Database (CSD) hosted by the Cambridge 
# Crystallographic Data Centre (CCDC).
# 
# Full information about CCDC data access policies and citation 
# guidelines are available at http://www.ccdc.cam.ac.uk/access/V1 
# 
# Audit and citation data items may have been added by the CCDC. 
# Please retain this information to preserve the provenance of 
# this file and to allow appropriate attribution of the data. 
# 
#######################################################################
@<TRIPOS>MOLECULE
1230799
    72    80     2     0     0
SMALL
NO_CHARGES
****
Generated from the CSD

@<TRIPOS>ATOM
     1 C1      -1.3242  -1.0531   5.9036   C.2       1 RES1   0.0000
     2 C2      -1.9511  -2.3883   4.0401   C.2       1 RES1   0.0000
     3 C3      -1.9500  -2.1472   5.3743   C.2       1 RES1   0.0000
     4 C12     -0.7389  -0.1753   5.0625   C.2       1 RES1   0.0000
     5 C16     -0.7026  -0.3518   3.6370   C.2       1 RES1   0.0000
     6 C17     -0.0856   0.4558   2.7466   C.2       1 RES1   0.0000
     7 C18     -0.0904   0.3032   1.3776   C.2       1 RES1   0.0000
     8 C19      0.6176   1.1704   0.4858   C.2       1 RES1   0.0000
     9 C20     -0.5826  -0.9036   0.8222   C.2       1 RES1   0.0000
    10 C21     -1.2835  -1.7553   1.7764   C.2       1 RES1   0.0000
    11 C22     -1.2710  -1.5305   3.1164   C.2       1 RES1   0.0000
    12 H1      -1.3311  -0.8519   6.9898   H         1 RES1   0.0000
    13 H2      -2.4053  -3.2981   3.6399   H         1 RES1   0.0000
    14 H3      -2.4441  -2.8444   6.0907   H         1 RES1   0.0000
    15 H11     -0.2026   0.7192   5.3656   H         1 RES1   0.0000
    16 H12      0.3970   1.3169   3.1613   H         1 RES1   0.0000
    17 H13      1.0652   2.0135   0.8846   H         1 RES1   0.0000
    18 H14     -1.7421  -2.6674   1.4212   H         1 RES1   0.0000
    19 C20A     0.5826   0.9036  -0.8222   C.2       1 RES1   0.0000
    20 C19A    -0.6176  -1.1704  -0.4858   C.2       1 RES1   0.0000
    21 C18A     0.0904  -0.3032  -1.3776   C.2       1 RES1   0.0000
    22 C21A     1.2835   1.7553  -1.7764   C.2       1 RES1   0.0000
    23 H13A    -1.0652  -2.0135  -0.8846   H         1 RES1   0.0000
    24 C17A     0.0856  -0.4558  -2.7466   C.2       1 RES1   0.0000
    25 C22A     1.2710   1.5305  -3.1164   C.2       1 RES1   0.0000
    26 H14A     1.7421   2.6674  -1.4212   H         1 RES1   0.0000
    27 C16A     0.7026   0.3518  -3.6370   C.2       1 RES1   0.0000
    28 H12A    -0.3970  -1.3169  -3.1613   H         1 RES1   0.0000
    29 C2A      1.9511   2.3883  -4.0401   C.2       1 RES1   0.0000
    30 C12A     0.7389   0.1753  -5.0625   C.2       1 RES1   0.0000
    31 C3A      1.9500   2.1472  -5.3743   C.2       1 RES1   0.0000
    32 H2A      2.4053   3.2981  -3.6399   H         1 RES1   0.0000
    33 C1A      1.3242   1.0531  -5.9036   C.2       1 RES1   0.0000
    34 H11A     0.2026  -0.7192  -5.3656   H         1 RES1   0.0000
    35 H3A      2.4441   2.8444  -6.0907   H         1 RES1   0.0000
    36 H1A      1.3311   0.8519  -6.9898   H         1 RES1   0.0000
    37 C4      -6.1137  -3.7262   5.8209   C.2       2 RES2   0.0000
    38 C5      -6.0859  -2.8702   4.7652   C.2       2 RES2   0.0000
    39 C6      -5.4647  -3.1882   3.5297   C.2       2 RES2   0.0000
    40 C7      -5.4502  -2.2890   2.4450   C.2       2 RES2   0.0000
    41 C8      -4.7954  -2.6218   1.2268   C.2       2 RES2   0.0000
    42 C9      -4.7461  -1.7583   0.1450   C.2       2 RES2   0.0000
    43 C10     -4.1980  -3.9663   1.0934   C.2       2 RES2   0.0000
    44 C11     -4.3131  -4.8098   2.1506   C.2       2 RES2   0.0000
    45 C13     -4.8345  -4.5060   3.3963   C.2       2 RES2   0.0000
    46 C14     -4.9597  -5.3749   4.4868   C.2       2 RES2   0.0000
    47 C15     -5.4721  -5.0582   5.6919   C.2       2 RES2   0.0000
    48 H4      -6.6042  -3.4066   6.8882   H         2 RES2   0.0000
    49 H5      -6.4951  -1.8460   4.8580   H         2 RES2   0.0000
    50 H6      -5.8836  -1.2763   2.5813   H         2 RES2   0.0000
    51 H7      -5.2134  -0.7401   0.2900   H         2 RES2   0.0000
    52 H8      -3.8546  -5.8211   2.0592   H         2 RES2   0.0000
    53 H9      -4.5029  -6.3808   4.4085   H         2 RES2   0.0000
    54 H10     -5.4833  -5.7370   6.5692   H         2 RES2   0.0000
    55 C10A    -4.1459  -2.0775  -1.0934   C.2       2 RES2   0.0000
    56 C9A     -3.5978  -4.2854  -0.1450   C.2       2 RES2   0.0000
    57 C8A     -3.5484  -3.4219  -1.2268   C.2       2 RES2   0.0000
    58 C11A    -4.0307  -1.2339  -2.1506   C.2       2 RES2   0.0000
    59 H7A     -3.1304  -5.3036  -0.2900   H         2 RES2   0.0000
    60 C7A     -2.8936  -3.7547  -2.4450   C.2       2 RES2   0.0000
    61 C13A    -3.5093  -1.5377  -3.3963   C.2       2 RES2   0.0000
    62 H8A     -4.4892  -0.2227  -2.0592   H         2 RES2   0.0000
    63 C6A     -2.8792  -2.8556  -3.5297   C.2       2 RES2   0.0000
    64 H6A     -2.4602  -4.7674  -2.5813   H         2 RES2   0.0000
    65 C14A    -3.3842  -0.6688  -4.4868   C.2       2 RES2   0.0000
    66 C5A     -2.2579  -3.1735  -4.7652   C.2       2 RES2   0.0000
    67 C15A    -2.8717  -0.9855  -5.6919   C.2       2 RES2   0.0000
    68 H9A     -3.8409   0.3371  -4.4085   H         2 RES2   0.0000
    69 C4A     -2.2301  -2.3175  -5.8209   C.2       2 RES2   0.0000
    70 H5A     -1.8488  -4.1977  -4.8580   H         2 RES2   0.0000
    71 H10A    -2.8605  -0.3067  -6.5692   H         2 RES2   0.0000
    72 H4A     -1.7396  -2.6372  -6.8882   H         2 RES2   0.0000
@<TRIPOS>BOND
     1     1     3    1
     2     2     3    2
     3     3    14    1
     4     4     1    2
     5     5     4    1
     6     6     5    2
     7     7     6    1
     8     8     7    2
     9     9     7    1
    10    10     9    1
    11    11     2    1
    12    12     1    1
    13    13     2    1
    14    15     4    1
    15    16     6    1
    16    17     8    1
    17    18    10    1
    18    19     8    1
    19    20     9    2
    20    21    19    2
    21    22    19    1
    22    23    20    1
    23    24    21    1
    24    25    22    2
    25    26    22    1
    26    27    24    2
    27    28    24    1
    28    29    25    1
    29    30    27    1
    30    31    29    2
    31    32    29    1
    32    33    30    2
    33    34    30    1
    34    35    31    1
    35    36    33    1
    36     5    11    1
    37    10    11    2
    38    20    21    1
    39    25    27    1
    40    31    33    1
    41    37    38    2
    42    38    39    1
    43    39    40    2
    44    40    41    1
    45    41    42    2
    46    42    51    1
    47    43    41    1
    48    44    43    1
    49    45    39    1
    50    46    45    1
    51    47    37    1
    52    48    37    1
    53    49    38    1
    54    50    40    1
    55    52    44    1
    56    53    46    1
    57    54    47    1
    58    55    42    1
    59    56    43    2
    60    57    55    1
    61    58    55    2
    62    59    56    1
    63    60    57    2
    64    61    58    1
    65    62    58    1
    66    63    60    1
    67    64    60    1
    68    65    61    1
    69    66    63    1
    70    67    65    2
    71    68    65    1
    72    69    66    2
    73    70    66    1
    74    71    67    1
    75    72    69    1
    76    44    45    2
    77    46    47    2
    78    56    57    1
    79    61    63    2
    80    67    69    1
@<TRIPOS>SUBSTRUCTURE
     1 RES1        1 GROUP             0 ****  ****    0  
     2 RES2       37 GROUP             0 ****  ****    0  
@<TRIPOS>CRYSIN
    7.9000    6.0600   16.0100  101.9000  112.6000   85.8000     2     1
